*HEADING
Simple 1-element block test
*NODE
1,0,0,0
2,1,0,0
3,1,1,0
4,0,1,0
5,0,0,1
6,1,0,1
7,1,1,1
8,0,1,1
*ELEMENT, TYPE=C3D8, ELSET=EALL
1, 1,2,3,4,5,6,7,8
*NSET, NSET=FIX
1,4,5,8
*MATERIAL, NAME=STEEL
*ELASTIC
210000, 0.3
*SOLID SECTION, ELSET=EALL, MATERIAL=STEEL
*BOUNDARY
FIX, 1, 3, 0
*STEP
*STATIC
*CLOAD
2,1,-250
3,1,-250
6,1,-250
7,1,-250
*NODE FILE
U
*EL FILE
S, E
*END STEP
